test/test_files/validation_tests/case6495rte_resqlim.m
function mpc = case6495rte_resqlim
%CASE6495RTE_RESQLIM

%% MATPOWER Case Format : Version 2
mpc.version = '2';

%%-----  Power Flow Data  -----%%
%% system MVA base
mpc.baseMVA = 100;

%% bus data
%    bus_i    type    Pd    Qd    Gs    Bs    area    Vm    Va    baseKV    zone    Vmax    Vmin
mpc.bus = [
    1    1    0    0    0    0    1    0.979861563    -10.3130404    45    1    1    0.888889;
    2    1    0    0    0    0    1    1.03704124    -10.3049688    63    1    1.06349    0.936508;
    3    1    13.1    2.6    0    0    1    1.0241922    -12.7997954    63    1    1.07937    0.952381;
    4    1    49.2    3.4    0    0    1    1.0391206    -24.0678562    90    1    1.08889    0.933333;
    5    1    11    0    0    0    1    1.01843633    -52.5425662    63    1    1.06349    0.952381;
    6    1    13    4.3    0    0    1    1.02244097    -21.1804304    63    1    1.07937    0.920635;
    7    1    1.2    0.7    0    0    1    1.0493527    -23.2447162    63    1    1.07937    0.920635;
    8    1    24.6    13.1    0    0    1    1.04806184    -17.3214145    225    1    1.08889    0.888889;
    9    1    14.9    0    0    0    1    1.04515169    -17.6581054    63    1    1.06349    0.936508;
    10    1    0    0    0    0    1    1.03353979    -22.9241564    90    1    1.07778    0.922222;
    11    1    30.7    -2    0    0    1    1.03353957    -22.9241539    90    1    1.07778    0.922222;
    12    1    0    0    0    0    1    1.01653926    1.07380158    63    1    1.07937    0.952381;
    13    1    0    0    0    0    1    1.05873917    -3.59447901    380    1    1.10263    1.05313;
    14    1    52.7    13.4    0    30.4    1    1.06669221    -31.1908818    90    1    1.07778    0.977778;
    15    1    0    0    0    0    1    1.02753335    -23.2574318    63    1    1.07937    0.920635;
    16    1    12.5    -0.6    0    0    1    1.03039634    -28.9234047    63    1    1.07937    0.920635;
    17    1    10.9    0.2    0    0    1    1.04754998    -31.3068328    90    1    1.06667    0.977778;
    18    1    0    0    0    0    1    0.936292463    -5.00684715    45    1    1    0.888889;
    19    1    0    0    0    0    1    1.03073013    -20.2728139    63    1    1.06349    0.936508;
    20    1    3.9    -18.2    0    0    1    0.937073214    -5.04163873    45    1    1    0.888889;
    21    1    6.3    -2.5    0    0    1    1.03825431    -19.665887    90    1    1.06667    0.977778;
    22    1    17.3    0.8    0    0    1    1.02387419    -12.9680832    63    1    1.07937    0.952381;
    23    1    24.4    1.4    0    0    1    1.01420782    -10.1583533    63    1    1.06349    0.936508;
    24    1    16.7    -1.3    0    0    1    1.04168358    -22.4886577    90    1    1.11111    0.955556;
    25    1    51.1    -4    0    0    1    1.07631008    -18.8785732    90    1    1.1    0.944444;
    26    1    32.4    5    0    0    1    1.03481195    -25.0604271    90    1    1.06667    0.977778;
    27    1    0    0    0    0    1    1.06630022    -20.4699668    225    1    1.08444    1.00444;
    28    1    0    -0.2    0    0    1    1.03263622    -20.1858309    63    1    1.07937    0.952381;
    29    1    75    9.3    0    0    1    0.993785911    -23.0939595    63    1    1.06349    0.968254;
    30    1    37.6    3.3    0    0    1    1.03308859    -23.1301601    90    1    1.08889    0.933333;
    31    1    0    0    0    0    1    1.03614424    -8.93635622    63    1    1.06349    0.936508;
    32    1    0    0    0    0    1    1.04457075    -3.74744475    150    1    1.10667    0.9;
    33    1    0    0    0    0    1    1.05392706    -6.15458807    225    1    1.08889    0.933333;
    34    1    0    0    0    0    1    1.04964769    -5.48418787    225    1    1.08889    0.933333;
    35    1    0    0    0    0    1    1.07099734    -4.93554107    380    1    1.10526    1.03947;
    36    1    0    0    0    0    1    1.07295256    -3.84552775    380    1    1.10526    1.03947;
    37    1    2.4    4.7    0    0    1    1.01529364    -25.5742661    63    1    1.07937    0.920635;
    38    1    8    3    0    0    1    1.03505525    -20.7326937    63    1    1.09524    0.936508;
    39    1    40.6    -4.9    0    0    1    1.01298502    -38.8229054    90    1    1.07778    0.977778;
    40    1    34.7    5.1    0    0    1    1.05488455    -29.4386295    90    1    1.07778    0.977778;
    41    1    0    0    0    0    1    1.07357785    -25.806634    225    1    1.09152    1.00444;
    42    1    0    0    0    0    1    1.12154121    4.54160387    63    1    1.12834    0.952381;
    43    1    3.3    2.7    0    0    1    1.04694247    -26.6364199    90    1    1.07778    0.977778;
    44    1    15.2    1.6    0    0    1    1.0269221    -49.796639    63    1    1.06349    0.952381;
    45    1    3.8    0.8    0    0    1    1.02278828    -33.3673736    90    1    1.06667    0.977778;
    46    1    0    0    0    0    1    1.03285678    -15.0952819    63    1    1.06349    0.936508;
    47    1    0    0    0    0    1    1.02751758    -12.083344    63    1    1.06349    0.936508;
    48    1    38.6    3.9    0    0    1    1.03510469    -23.9177231    90    1    1.07778    0.922222;
    49    1    9.9    -2.6    0    0    1    1.03677236    -15.7923966    63    1    1.06349    0.936508;
    50    1    0    0    0    0    1    1.07013717    -13.3837304    63    1    1.07458    0.936508;
    51    1    0    0    0    0    1    1.05494842    -8.6621616    225    1    1.08889    0.933333;
    52    1    8    3.5    0    0    1    1.03474011    -34.8041182    90    1    1.06667    0.977778;
    53    1    0.1    -1.2    0    0    1    1.00726621    -27.0788016    63    1    1.04762    0.952381;
    54    1    -0.6    1.2    0    0    1    1.03869192    -17.7616413    90    1    1.06667    0.977778;
    55    1    49    11.3    0    0    1    1.07362527    -28.4976395    225    1    1.08991    1.00444;
    56    1    78.6    22.5    0    0    1    1.06364067    -24.6748519    225    1    1.08889    1.00444;
    57    1    0    0    0    0    1    1.05780106    -18.9874369    63    1    1.07937    0.920635;
    58    1    146.7    32.5    0    0    1    1.07345584    -28.5127014    225    1    1.08975    1.00444;
    59    1    5.1    0.4    0    0    1    1.04792122    -11.1130571    63    1    1.07937    0.952381;
    60    1    0    0    0    0    1    1.03824374    -5.49114888    63    1    1.07937    0.952381;
    61    1    41.4    11.6    0    0    1    1.04075492    -7.47890272    63    1    1.07937    0.952381;
    62    1    0    0    0    0    1    1.02490801    -5.6025647    63    1    1.07937    0.952381;
    63    1    15.8    2    0    0    1    1.01095492    0.101827276    63    1    1.07937    0.952381;
    64    1    64.3    5.4    0    0    1    1.0656869    -16.4931651    225    1    1.08889    0.888889;
    65    1    12    2.9    0    0    1    1.05108276    -8.06749313    63    1    1.07937    0.952381;
    66    1    14.4    -6.8    0    0    1    1.04148358    -24.3134705    63    1    1.06349    0.936508;
    67    1    1    0    0    0    1    1.04132544    -20.4066116    63    1    1.07937    0.920635;
    68    1    48.7    3.8    0    0    1    1.02243753    -14.9956829    63    1    1.06349    0.936508;
    69    1    17.3    -1.6    0    0    1    1.04377984    -53.9180372    63    1    1.06349    0.952381;
    70    1    11.7    3.5    0    0    1    1.02101179    1.81257048    63    1    1.07937    0.952381;
    71    1    68.8    17.2    0    0    1    1.02185976    -27.5979332    63    1    1.04762    0.952381;
    72    1    0    0    0    0    1    1.07848535    -20.4016865    225    1    1.08892    1.00444;
    73    1    0    0    0    0    1    1.07848616    -20.4009209    225    1    1.08892    1.00444;
    74    1    53.3    -8.7    0    0    1    1.0661864    -16.3427416    225    1    1.08889    0.888889;
    75    1    25    1.6    0    0    1    1.04810234    -21.1391856    90    1    1.06667    0.977778;
    76    1    9    0.7    0    0    1    1.07508856    3.53917913    225    1    1.08889    0.986667;
    77    1    40.8    -1.5    0    0    1    1.02761149    -16.2911453    63    1    1.06349    0.936508;
    78    1    0    0    0    0    1    1.04009034    -26.2379745    63    1    1.07937    0.920635;
    79    1    0    0    0    0    1    1.01089357    -26.1409339    63    1    1.04762    0.952381;
    80    1    34.6    10.4    0    0    1    1.04920624    -25.8057619    225    1    1.08889    1.00444;
    81    1    34.6    9    0    0    1    1.04922568    -25.8056912    225    1    1.08889    1.00444;
    82    1    11.6    -0.2    0    0    1    1.03829238    -16.6786726    63    1    1.06349    0.936508;
    83    1    92.4    64.5    0    0    1    1.0585381    -26.2569794    225    1    1.08889    1.00444;
    84    1    1.4    -0.2    0    0    1    1.02532024    -12.4845775    63    1    1.06349    0.936508;
    85    1    1.8    -2    0    0    1    1.04825989    -16.0055616    63    1    1.06568    0.936508;
    86    1    44.9    3.7    0    0    1    1.03200116    -42.3257317    90    1    1.06667    0.977778;
    87    1    0    0    0    0    1    1.02468467    0.249078323    63    1    1.07937    0.952381;
    88    1    15.9    2    0    0    1    1.039885    -18.4531292    63    1    1.06349    0.936508;
    89    1    25.7    0.4    0    0    1    1.04286303    -29.1828284    90    1    1.07778    0.977778;
    90    1    0.4    -2.3    0    0    1    0.941075325    -5.71119843    45    1    1    0.888889;
    91    1    0    0    0    0    1    0.936292463    -5.00684715    45    1    1    0.888889;
    92    1    31.6    3.2    0    0    1    1.01470243    -18.9263859    63    1    1.06349    0.968254;
    93    1    2.2    -2.2    0    0    1    0.953321704    -7.66579588    45    1    1    0.888889;
    94    1    16.9    -4.6    0    0    1    1.04404852    -24.0115614    90    1    1.06667    0.977778;
    95    1    53.2    9.3    0    0    1    1.03650769    -34.6979683    90    1    1.06667    0.977778;
    96    1    1.2    0.1    0    0    1    1.05113282    -8.27100728    63    1    1.06349    0.936508;
    97    1    55    1.6    0    0    1    1.03780014    -23.8248688    63    1    1.07937    0.920635;
    98    1    7.7    -2.1    0    0    1    1.03246991    -19.2670371    63    1    1.07937    0.952381;
    99    1    31.9    5    0    0    1    1.04707988    -7.15390073    63    1    1.07937    0.952381;
    100    1    59.9    8.9    0    0    1    1.02095995    -14.0568066    63    1    1.06349    0.936508;
    101    1    17.1    0.1    0    0    1    1.01457224    -13.2923966    63    1    1.06349    0.936508;
    102    1    0    0    0    0    1    1.03206699    -14.7088723    63    1    1.07937    0.952381;
    103    1    13    -1.4    0    0    1    1.04142632    -5.85421356    63    1    1.07937    0.952381;
    104    1    0    0    0    0    1    1.07346917    -3.18042994    225    1    1.08889    0.986667;
    105    1    37.7    0.8    0    0    1    1.04756002    -14.9945577    225    1    1.08889    0.888889;
    106    1    56.3    8.2    0    0    1    1.05801724    -19.8248056    90    1    1.1    0.944444;
    107    1    107.4    13.9    0    0    1    1.04492564    -28.4143626    225    1    1.08444    1.00889;
    108    1    12.7    -3.9    0    0    1    1.05122977    -24.8575442    90    1    1.07778    0.977778;
    109    1    60.8    4.1    0    0    1    1.0487987    -12.4369797    63    1    1.06837    0.936508;
    110    1    0    0    0    0    1    1.03299813    -8.78090376    225    1    1.08889    0.933333;
    111    1    37.3    -7.4    0    0    1    1.00278029    -21.3514155    63    1    1.06349    0.968254;
    112    1    0    0    0    0    1    1.02230522    -27.2916329    63    1    1.04762    0.952381;
    113    1    0    0    0    0    1    1.05381883    -23.8079226    225    1    1.08889    1.00444;
    114    1    12.9    0.7    0    0    1    1.0469651    -11.6494314    63    1    1.06349    0.936508;
    115    1    0    0    0    0    1    1.05874835    -3.5945624    380    1    1.10526    1.05263;
    116    1    0    0    0    0    1    1.05874835    -3.5945624    380    1    1.10526    1.05263;
    117    1    12.8    -2.1    0    0    1    1.02299831    -18.2663545    63    1    1.07937    0.952381;
    118    1    2    0.8    0    0    1    1.05048378    -20.817027    90    1    1.06667    0.977778;
    119    1    40.3    3.7    0    0    1    1.01895229    -10.1309033    63    1    1.06349    0.936508;
    120    1    22    -2.3    0    0    1    1.01792694    -9.09754951    63    1    1.06349    0.936508;
    121    1    22.1    6.8    0    0    1    1.02375863    -25.6111017    63    1    1.07937    0.920635;
    122    3    0    0    0    0    1    1.038    -6.78268178    63    1    1.07937    0.952381;
    123    1    11    3.7    0    0    1    1.03589557    -6.90674564    63    1    1.07937    0.952381;
    124    1    8.9    -2.2    0    0    1    1.04523372    -27.3544386    90    1    1.06667    0.977778;
    125    1    11.6    -1.2    0    0    1    1.03233934    -13.5593308    63    1    1.07937    0.952381;
    126    1    0.4    0.3    0    0    1    1.05005416    -15.9755943    63    1    1.06349    0.936508;
    127    1    10.7    2.9    0    0    1    1.01278086    -29.969439    63    1    1.04762    0.952381;
    128    1    13.4    5    0    0    1    1.02100972    -11.2490011    63    1    1.06349    0.968254;
    129    1    17    12.8    0    0    1    1.01951433    -9.50779967    63    1    1.06349    0.968254;
    130    1    0    0    0    0    1    1.04891733    -8.67555419    225    1    1.08444    1.00889;
    131    1    110.7    4.4    0    0    1    1.04694889    -16.2149607    225    1    1.08444    1.00889;
    132    1    9.4    0    0    0    1    1.06663827    -17.1088373    90    1    1.07778    0.922222;
    133    1    2.5    -0.1    0    0    1    0.985364142    -29.7124564    63    1    1.04762    0.952381;
    134    1    101.1    28.6    0    0    1    1.03160335    -26.538556    225    1    1.08889    1.00444;
    135    1    0    0    0    0    1    1.07445117    -28.3270174    225    1    1.09072    1.00444;
    136    1    23.7    0.6    0    0    1    1.04296316    -37.6979845    90    1    1.07778    0.977778;
    137    2    8.1    -3.8    0    0    1    1.032    -12.8396646    63    1    1.06349    0.968254;
    138    1    0    0    0    0    1    1.05020937    -11.0249929    150    1    1.08    0.966667;
    139    1    15.7    4.1    0    0    1    1.03518096    -16.8840401    63    1    1.07937    0.920635;
    140    1    0    0    0    80    1    1.06058511    -13.1757609    225    1    1.08889    1;
    141    1    0    0    0    0    1    1.06857337    -9.75008556    380    1    1.10526    1.05263;
    142    1    12.5    1.1    0    0    1    1.05135167    -10.6746305    63    1    1.07937    0.952381;
    143    1    0    0    0    0    1    1.06915625    -6.26610893    225    1    1.08889    0.986667;
    144    1    8.9    2.5    0    0    1    1.04615085    -20.6689547    90    1    1.11111    0.955556;
    145    1    24    7.7    0    0    1    1.06711453    -16.2332702    225    1    1.08889    0.968889;
    146    1    0    0    0    0    1    1.07869024    -13.2061656    380    1    1.10526    1;
    147    1    28    4.6    0    0    1    1.04549966    -14.7383788    63    1    1.06349    0.936508;
    148    1    6.6    1.5    0    0    1    1.04441566    -12.0517068    63    1    1.06349    0.936508;
    149    1    15.9    4.2    0    0    1    1.04179287    -33.9651292    90    1    1.06667    0.977778;
    150    1    48.4    1    0    0    1    1.03439962    -9.43519106    63    1    1.06349    0.936508;
    151    1    0    0    0    0    1    0.985007915    -24.1906876    63    1    1.06349    0.968254;
    152    1    42.6    9.4    0    7.7    1    0.984890328    -22.9364071    63    1    1.06349    0.968254;
    153    1    26.9    -4.9    0    0    1    1.04033503    -10.7052758    63    1    1.06349    0.936508;
    154    1    0    0    0    0    1    1.06245123    -7.41429861    225    1    1.08889    0.933333;
    155    2    0    0    0    0    1    1.03755554    -20.9118794    63    1    1.07937    0.920635;
    156    1    0    0    0    0    1    0.9849605    -24.1957394    63    1    1.06349    0.968254;
    157    1    -1.4    -2.3    0    0    1    0.929746938    -9.02961808    45    1    1    0.888889;
    158    2    0    0    0    0    1    0.963    -8.45396527    45    1    1    0.888889;
    159    1    0    0    0    0    1    1.03314933    -11.8802579    63    1    1.06349    0.936508;
    160    1    39.6    5.7    0    0    1    1.05576487    -13.4880415    225    1    1.08889    0.888889;
    161    1    40.6    10.8    0    0    1    1.0555491    -13.4893318    225    1    1.08889    0.888889;
    162    1    -0.1    -1.2    0    0    1    1.02205413    -24.8991836    90    1    1.06667    0.977778;
    163    1    0    0    0    0    1    1.02270015    -6.38266453    63    1    1.07937    0.952381;
    164    1    0    0    0    0    1    1.02270015    -6.38266453    63    1    1.07937    0.952381;
    165    1    12.5    6.7    0    0    1    1.07326246    -29.5121822    20    1    1.15    0.8;
    166    1    8.1    -0.3    0    0    1    1.04132748    -33.6076328    90    1    1.06667    0.977778;
    167    1    8.3    -2    0    0    1    1.03939456    -34.0798058    90    1    1.06667    0.977778;
    168    1    0    0    0    0    1    1.07332385    -29.5072478    225    1    1.08444    1.00444;
    169    1    9.1    -0.5    0    0    1    1.03614151    -29.6297798    90    1    1.06667    0.977778;
    170    1    78.8    13.1    0    0    1    1.04409571    -29.4148574    90    1    1.07778    0.977778;
    171    1    26.3    -0.9    0    30    1    1.05856828    -32.3338372    90    1    1.07921    0.977778;
    172    1    0    0    0    0    1    1.0678681    -28.1623118    225    1    1.08889    1.00444;
    173    1    28.9    8.2    0    0    1    1.06995249    -17.8896431    90    1    1.08889    0.933333;
    174    1    54.8    9.7    0    0    1    1.07041414    -20.5870971    90    1    1.11111    0.955556;
    175    1    0    0    0    0    1    1.02625124    -20.3258062    63    1    1.07937    0.920635;
    176    2    0    0    0    0    1    1.09541437    -18.04821    150    1    1.1    0.9;
    177    1    0    0    0    0    1    1.06705062    -26.5549902    225    1    1.08889    1.00444;
    178    1    0    0    0    0    1    1.06705084    -26.5549914    225    1    1.08889    1.00444;
    179    1    0    0    0    0    1    1.01294366    -29.9597109    63    1    1.04762    0.952381;
    180    1    0    0    0    0    1    1.06704934    -26.5549833    225    1    1.08889    1.00444;
    181    1    14.2    -5    0    0    1    1.04411258    -25.6223199    63    1    1.07937    0.920635;
    182    1    15    4.1    0    0    1    1.04377904    -9.3161114    63    1    1.06349    0.936508;
    183    1    6.2    -0.7    0    0    1    1.03604592    -19.2927179    63    1    1.07937    0.952381;
    184    1    4    1.4    0    0    1    1.06394865    -26.0177965    90    1    1.07778    0.977778;
    185    1    28.1    2.7    0    0    1    1.04289637    -11.4881154    63    1    1.07937    0.952381;
    186    1    0.4    1.3    0    0    1    1.0288604    -23.4662892    90    1    1.06667    0.977778;
    187    2    0    0    0    0    1    1.05020184    -20.9054771    63    1    1.07937    0.920635;
    188    1    0    0    0    0    1    1.09705086    -19.1469305    63    1    1.10211    0.920635;
    189    1    16.4    2.1    0    0    1    1.0353011    -23.9965439    63    1    1.07937    0.920635;
    190    2    0    0    0    0    1    0.94996476    -6.90654884    45    1    1    0.888889;
    191    1    14.3    -1.2    0    0    1    1.03784442    -29.6864732    90    1    1.06667    0.977778;
    192    1    7.2    -2    0    0    1    1.05938402    -19.6063206    63    1    1.07937    0.920635;
    193    1    -0.3    0.8    0    0    1    1.05346977    -24.3161459    225    1    1.08889    1.00444;
    194    1    0.7    -2.2    0    0    1    1.05238487    -24.2249432    63    1    1.07937    0.920635;
    195    1    0    0    0    0    1    1.05789686    -26.6290772    63    1    1.07545    0.952381;
    196    1    0    0    0    0    1    1.0578983    -26.6291198    63    1    1.07546    0.952381;
    197    1    27.3    0.8    0    15    1    1.02031396    -31.8159058    63    1    1.07937    0.920635;
    198    1    10    -0.7    0    0    1    1.03626791    -21.1307605    63    1    1.07937    0.920635;
    199    1    11.4    1.5    0    0    1    1.02136635    -39.9925124    90    1    1.06667    0.977778;
    200    1    0    0    0    0    1    1.08312687    -22.2360891    225    1    1.08889    1;
...
];

%% generator data
%    bus    Pg    Qg    Qmax    Qmin    Vg    mBase    status    Pmax    Pmin    Pc1    Pc2    Qc1min    Qc1max    Qc2min    Qc2max    ramp_agc    ramp_10    ramp_30    ramp_q    apf
mpc.gen = [
    4    0    0    0    0    1.04    100    0    12    0    0    0    0    0    0    0    0    0    0    0    0;
    4    0    0    0    0    1.04    100    0    10    0    0    0    0    0    0    0    0    0    0    0    0;
    5    0    0    0    0    1.024    100    0    9.1    0    0    0    0    0    0    0    0    0    0    0    0;
    11    0.1    0    0    0    1.035    100    1    28    0    0    0    0    0    0    0    0    0    0    0    0;
    11    0    0    0    0    1.035    100    0    18    0    0    0    0    0    0    0    0    0    0    0    0;
    17    0    0    0    0    1.051    100    0    8.2    0    0    0    0    0    0    0    0    0    0    0    0;
    19    0    0    0    0    1.032    100    0    1.2    0    0    0    0    0    0    0    0    0    0    0    0;
    22    0    0    0    0    1.024    100    0    10    0    0    0    0    0    0    0    0    0    0    0    0;
    24    0    0    0    0    1.042    100    0    16.1    0    0    0    0    0    0    0    0    0    0    0    0;
    24    0    0    0    0    1.042    100    0    35.5    0    0    0    0    0    0    0    0    0    0    0    0;
    25    1.29    0    0    0    1.078    100    1    36    0    0    0    0    0    0    0    0    0    0    0    0;
    25    0    0    0    0    1.078    100    0    27.2    0    0    0    0    0    0    0    0    0    0    0    0;
    40    0    0    0    0    1.061    100    0    8    0    0    0    0    0    0    0    0    0    0    0    0;
    47    11.531098    -10    9.5    -10    1.027    100    1    16    0    0    0    0    0    0    0    0    0    0    0    0;
    47    8.51    -10    9.5    -10    1.027    100    1    16    0    0    0    0    0    0    0    0    0    0    0    0;
    48    0    0    0    0    1.037    100    0    23    0    0    0    0    0    0    0    0    0    0    0    0;
    48    0    0    0    0    1.037    100    0    24    0    0    0    0    0    0    0    0    0    0    0    0;
    57    4.17    1    1    0.9    1.061    100    1    13    0    0    0    0    0    0    0    0    0    0    0    0;
    64    0    0    0    0    1.067    100    0    24    0    0    0    0    0    0    0    0    0    0    0    0;
    64    0    0    0    0    1.067    100    0    27.6    0    0    0    0    0    0    0    0    0    0    0    0;
    69    0    0    0    0    1.049    100    0    30.04    0    0    0    0    0    0    0    0    0    0    0    0;
    70    0    0    0    0    1.022    100    0    23    0    0    0    0    0    0    0    0    0    0    0    0;
    85    0.15    0    0    0    1.05    100    1    6.68    0    0    0    0    0    0    0    0    0    0    0    0;
    86    0    0    0    0    1.035    100    0    9.2    0    0    0    0    0    0    0    0    0    0    0    0;
    102    17.12    -9    21    -9    1.03    100    1    46    0    0    0    0    0    0    0    0    0    0    0    0;
    122    5.75618957    1.62318745    5    -2    1.038    100    1    12    0    0    0    0    0    0    0    0    0    0    0    0;
    124    0    0    0    0    1.047    100    0    9    0    0    0    0    0    0    0    0    0    0    0    0;
    125    1.11    0    0    0    1.034    100    1    26    0    0    0    0    0    0    0    0    0    0    0    0;
    125    0    0    0    0    1.034    100    0    12    0    0    0    0    0    0    0    0    0    0    0    0;
    132    12.21    3    3    -3    1.068    100    1    17    0    0    0    0    0    0    0    0    0    0    0    0;
    132    0    0    1    -1    1.068    100    0    4    0    0    0    0    0    0    0    0    0    0    0    0;
    132    0    0    3    -3    1.068    100    0    14    0    0    0    0    0    0    0    0    0    0    0    0;
    132    0    0    3    -3    1.068    100    0    14    0    0    0    0    0    0    0    0    0    0    0    0;
    137    0    0    0.8    -0.8    1.032    100    0    18    0    0    0    0    0    0    0    0    0    0    0    0;
    137    10.14    -0.755879235    0.8    -0.8    1.032    100    1    18    0    0    0    0    0    0    0    0    0    0    0    0;
    155    0    0    1.76    -1.76    1.05    100    0    5.3    0    0    0    0    0    0    0    0    0    0    0    0;
    158    8.2    3.51343285    10    -13    0.963    100    1    17.9    0    0    0    0    0    0    0    0    0    0    0    0;
    158    8.2    3.51343285    10    -13    0.963    100    1    17.9    0    0    0    0    0    0    0    0    0    0    0    0;
    176    0    0    10    -4    1.099    100    0    30    0    0    0    0    0    0    0    0    0    0    0    0;
    187    0    0    8    -8    1.079    100    0    11    0    0    0    0    0    0    0    0    0    0    0    0;
    187    0    0    2    -2    1.079    100    0    11    0    0    0    0    0    0    0    0    0    0    0    0;
    190    0    0    14    -14    0.948    100    0    30    0    0    0    0    0    0    0    0    0    0    0    0;
    192    2.1    0    0    0    1.062    100    1    23.5    0    0    0    0    0    0    0    0    0    0    0    0;
    194    2.48    1    1    0.9    1.059    100    1    15    0    0    0    0    0    0    0    0    0    0    0    0;
    194    2.48    1    1    0.9    1.059    100    1    15    0    0    0    0    0    0    0    0    0    0    0    0;
    217    0    0    0    0    1.029    100    0    11.94    0    0    0    0    0    0    0    0    0    0    0    0;
    224    0    0    2    0    1.099    100    0    6    0    0    0    0    0    0    0    0    0    0    0    0;
    227    0    0    0    0    1.027    100    0    7.5    0    0    0    0    0    0    0    0    0    0    0    0;
    236    0    0    0    0    1.051    100    0    33.5    0    0    0    0    0    0    0    0    0    0    0    0;
    236    0    0    0    0    1.051    100    0    24.3    0    0    0    0    0    0    0    0    0    0    0    0;
    238    0    0    0    0    1.04    100    0    8    0    0    0    0    0    0    0    0    0    0    0    0;
    238    0    0    0    0    1.04    100    0    36    0    0    0    0    0    0    0    0    0    0    0    0;
    246    0    0    2    0    1.015    100    0    1    0    0    0    0    0    0    0    0    0    0    0    0;
    246    0    0    10    -10    1.015    100    0    31    0    0    0    0    0    0    0    0    0    0    0    0;
    246    0    0    10    -10    1.015    100    0    31    0    0    0    0    0    0    0    0    0    0    0    0;
    246    0    0    10    -10    1.015    100    0    31    0    0    0    0    0    0    0    0    0    0    0    0;
    256    8.11    -4.76025108    10    -10    1.047    100    1    26    0    0    0    0    0    0    0    0    0    0    0    0;
    256    13.11    -4.76025108    10    -10    1.047    100    1    26    0    0    0    0    0    0    0    0    0    0    0    0;
    258    25.27    1    1    0.9    1.079    100    1    30    0    0    0    0    0    0    0    0    0    0    0    0;
    261    0    0    4    -4    1.047    100    0    8    0    0    0    0    0    0    0    0    0    0    0    0;
    269    0    0    0    0    1.009    100    0    12.6    0    0    0    0    0    0    0    0    0    0    0    0;
    282    0    0    6.1    -6.2    1.015    100    0    11.6    0    0    0    0    0    0    0    0    0    0    0    0;
    295    0    0    0    0    1.055    100    0    25.3    0    0    0    0    0    0    0    0    0    0    0    0;
    296    5.04    0    0    0    1.02    100    1    12    0    0    0    0    0    0    0    0    0    0    0    0;
    305    0.15    -2.20721783    9    -9    1.053    100    1    15    0    0    0    0    0    0    0    0    0    0    0    0;
    312    2.19    0    0    0    1.022    100    1    25.8    0    0    0    0    0    0    0    0    0    0    0    0;
    312    8.19    0    0    0    1.022    100    1    49.6    0    0    0    0    0    0    0    0    0    0    0    0;
    317    0    0    0    0    1.064    100    0    0    -7    0    0    0    0    0    0    0    0    0    0    0;
    317    0    0    0    0    1.064    100    0    0    -7    0    0    0    0    0    0    0    0    0    0    0;
    319    0    0    0.1    -0.1    1.037    100    0    10.8    0    0    0    0    0    0    0    0    0    0    0    0;
    325    0    0    4    -4    1.037    100    0    11    0    0    0    0    0    0    0    0    0    0    0    0;
    332    0    0    13    -9    1.034    100    0    25    0    0    0    0    0    0    0    0    0    0    0    0;
    333    0    0    13    -9    1.048    100    0    25    0    0    0    0    0    0    0    0    0    0    0    0;
    336    7.91    0.927766759    5    -6    1.026    100    1    13    0    0    0    0    0    0    0    0    0    0    0    0;
    338    0    0    10    -10    1.078    100    0    21    0    0    0    0    0    0    0    0    0    0    0    0;
    338    0    0    0.1    -0.1    1.078    100    0    2    0    0    0    0    0    0    0    0    0    0    0    0;
    345    0    0    0    0    1.035    100    0    2.3    0    0    0    0    0    0    0    0    0    0    0    0;
    345    0.05    0    0    0    1.035    100    1    19.5    0    0    0    0    0    0    0    0    0    0    0    0;
    348    0    0    0    0    1.062    100    0    22    0    0    0    0    0    0    0    0    0    0    0    0;
    357    0    0    0    0    1.018    100    0    12    0    0    0    0    0    0    0    0    0    0    0    0;
    357    0    0    0    0    1.018    100    0    12    0    0    0    0    0    0    0    0    0    0    0    0;
    364    125.15    18.8502117    59    -26    1.049    100    1    130    0    0    0    0    0    0    0    0    0    0    0    0;
    391    0    0    0    0    1.043    100    0    2.7    0    0    0    0    0    0    0    0    0    0    0    0;
    409    0    0    5    -5    1.033    100    0    18    0    0    0    0    0    0    0    0    0    0    0    0;
    411    0    0    0    0    1.038    100    0    10    0    0    0    0    0    0    0    0    0    0    0    0;
    411    0    0    0    0    1.038    100    0    11.5    0    0    0    0    0    0    0    0    0    0    0    0;
    431    2.06    0    0    0    1.062    100    1    12    0    0    0    0    0    0    0    0    0    0    0    0;
    440    0    0    10.96    -11.99    1.035    100    0    34.25    0    0    0    0    0    0    0    0    0    0    0    0;
    447    17.34    1.37192548    8    -9    0.999    100    1    25    0    0    0    0    0    0    0    0    0    0    0    0;
    462    0    0    0    0    1.038    100    0    2.4    0    0    0    0    0    0    0    0    0    0    0    0;
    462    0    0    0    0    1.038    100    0    16    0    0    0    0    0    0    0    0    0    0    0    0;
    464    4.27    0.334903298    6    -3    1.168    100    1    27    1    0    0    0    0    0    0    0    0    0    0    0;
    464    4.27    0.334903298    6    -3    1.168    100    1    27    1    0    0    0    0    0    0    0    0    0    0    0;
    466    0    0    19    -10    1.037    100    0    48    1    0    0    0    0    0    0    0    0    0    0    0;
    470    0    0    6    -6    1.049    100    0    10    0    0    0    0    0    0    0    0    0    0    0    0;
    470    0    0    5.4    -5.4    1.049    100    0    9    0    0    0    0    0    0    0    0    0    0    0    0;
    479    0    0    17    -16    1.019    100    0    27    0    0    0    0    0    0    0    0    0    0    0    0;
    479    0    0    17    -16    1.019    100    0    27    0    0    0    0    0    0    0    0    0    0    0    0;
    479    0    0    17    -16    1.019    100    0    27    0    0    0    0    0    0    0    0    0    0    0    0;
    491    0    0    8    -17    1.055    100    0    23.4    0    0    0    0    0    0    0    0    0    0    0    0;
    508    0    0    2    -2    1.029    100    0    4    0    0    0    0    0    0    0    0    0    0    0    0;
    519    0    0    0    0    1.007    100    0    10    0    0    0    0    0    0    0    0    0    0    0    0;
    520    0    0    0    0    1.042    100    0    12    0    0    0    0    0    0    0    0    0    0    0    0;
    530    1.87    0.731836757    4.8    -4.8    1.044    100    1    8    0    0    0    0    0    0    0    0    0    0    0    0;
    530    1.87    0.731836757    4.8    -4.8    1.044    100    1    8    0    0    0    0    0    0    0    0    0    0    0    0;
    530    1.87    0.731836757    4.8    -4.8    1.044    100    1    8    0    0    0    0    0    0    0    0    0    0    0    0;
    537    0    0    0    0    1.035    100    0    12    0    0    0    0    0    0    0    0    0    0    0    0;
    537    1.95    0    0    0    1.035    100    1    24    0    0    0    0    0    0    0    0    0    0    0    0;
    546    0    2    2    1.9    1.051    100    1    9    0    0    0    0    0    0    0    0    0    0    0    0;
    548    0    0    2    0    1.051    100    0    12    0    0    0    0    0    0    0    0    0    0    0    0;
    570    0    0    0    0    1.001    100    0    12    0    0    0    0    0    0    0    0    0    0    0    0;
    570    0    0    0    0    1.001    100    0    30    0    0    0    0    0    0    0    0    0    0    0    0;
    570    0    0    0    0    1.001    100    0    11.5    0    0    0    0    0    0    0    0    0    0    0    0;
    583    3.18    4.98133204    7    -4    1.021    100    1    16    0    0    0    0    0    0    0    0    0    0    0    0;
    585    0    0    0    0    0.995    100    0    9    0    0    0    0    0    0    0    0    0    0    0    0;
    586    0    0    5.7    -5.7    1.022    100    0    9.5    0    0    0    0    0    0    0    0    0    0    0    0;
    589    0    0    0.1    -0.1    1.03    100    0    1    0    0    0    0    0    0    0    0    0    0    0    0;
    593    0    0    10    -10    1.013    100    0    21    0    0    0    0    0    0    0    0    0    0    0    0;
    600    0    0    1    -1    1.03    100    0    6.1    0    0    0    0    0    0    0    0    0    0    0    0;
    610    39.12    -4.29163856    45    -45    1.028    100    1    45    0    0    0    0    0    0    0    0    0    0    0    0;
    610    0    0    45    -45    1.028    100    0    45    0    0    0    0    0    0    0    0    0    0    0    0;
    612    0    0    0    0    1.024    100    0    12    0    0    0    0    0    0    0    0    0    0    0    0;
    612    0    0    0    0    1.024    100    0    12    0    0    0    0    0    0    0    0    0    0    0    0;
    612    0    0    0    0    1.024    100    0    12    0    0    0    0    0    0    0    0    0    0    0    0;
    613    0    0    0    0    1.022    100    0    35    0    0    0    0    0    0    0    0    0    0    0    0;
    613    0    0    0    0    1.022    100    0    11.5    0    0    0    0    0    0    0    0    0    0    0    0;
    624    -4.03    -2.68252423    8.3    -8.3    1.039    100    1    8.3    -8.3    0    0    0    0    0    0    0    0    0    0    0;
    633    0    0    4    -4.7    1.039    100    0    7.3    0    0    0    0    0    0    0    0    0    0    0    0;
    636    0    0    7    0    1.003    100    0    15    0    0    0    0    0    0    0    0    0    0    0    0;
    636    0.97    6.45242551    7    0    1.003    100    1    15    0    0    0    0    0    0    0    0    0    0    0    0;
    641    160.75    -3.59571801    80    -75    1.104    100    1    239    0    0    0    0    0    0    0    0    0    0    0    0;
    652    0    0    7    0    1.062    100    0    7    0    0    0    0    0    0    0    0    0    0    0    0;
    670    0.14    0    0    0    1.033    100    1    12    0    0    0    0    0    0    0    0    0    0    0    0;
    670    0.14    0    0    0    1.033    100    1    12    0    0    0    0    0    0    0    0    0    0    0    0;
    671    0    0    0    0    1.036    100    0    7.5    0    0    0    0    0    0    0    0    0    0    0    0;
    671    1.13    0    0    0    1.036    100    1    24    0    0    0    0    0    0    0    0    0    0    0    0;
    679    0    0    0    0    1.016    100    0    6.6    0    0    0    0    0    0    0    0    0    0    0    0;
    680    0    0    0    0    1.059    100    0    12    0    0    0    0    0    0    0    0    0    0    0    0;
    684    2.24    2.97578476    6    -5    0.966    100    1    9    0    0    0    0    0    0    0    0    0    0    0    0;
    684    2.24    2.97578476    6    -5    0.966    100    1    9    0    0    0    0    0    0    0    0    0    0    0    0;
    684    0    0    8    -5    0.966    100    0    11    0    0    0    0    0    0    0    0    0    0    0    0;
    684    2.24    4.42592744    8    -5    0.966    100    1    11    0    0    0    0    0    0    0    0    0    0    0    0;
    695    0    0    0    0    1.05    100    0    32.35    0    0    0    0    0    0    0    0    0    0    0    0;
    695    0    0    0    0    1.05    100    0    12    0    0    0    0    0    0    0    0    0    0    0    0;
    695    0    0    0    0    1.05    100    0    21    0    0    0    0    0    0    0    0    0    0    0    0;
    699    27.82    -7.3897938    15    -17    1.014    100    1    37    0    0    0    0    0    0    0    0    0    0    0    0;
    699    26.84    -7.3897938    15    -17    1.014    100    1    37    0    0    0    0    0    0    0    0    0    0    0    0;
    698    26.02    -8.03684084    15    -15    1.012    100    1    37    0    0    0    0    0    0    0    0    0    0    0    0;
    698    28    -8.03684084    15    -15    1.012    100    1    37    0    0    0    0    0    0    0    0    0    0    0    0;
    697    27.99    -8.04497941    15    -17    1.012    100    1    37    0    0    0    0    0    0    0    0    0    0    0    0;
    697    25.02    -8.04497941    15    -17    1.012    100    1    37    0    0    0    0    0    0    0    0    0    0    0    0;
    705    0    0    2    -2    0.96    100    0    4    0    0    0    0    0    0    0    0    0    0    0    0;
    705    0    0    2.5    -2.5    0.96    100    0    4    0    0    0    0    0    0    0    0    0    0    0    0;
    705    0.93    3    3    -3    0.96    100    1    5.7    0    0    0    0    0    0    0    0    0    0    0    0;
    705    0    0    6    -5    0.96    100    0    8.5    0    0    0    0    0    0    0    0    0    0    0    0;
    732    0    0    0    0    1.039    100    0    19.5    0    0    0    0    0    0    0    0    0    0    0    0;
    733    27.26    -4.88598895    18    -18    1.007    100    1    39    0    0    0    0    0    0    0    0    0    0    0    0;
    734    0    0    0    0    1.006    100    0    11.5    0    0    0    0    0    0    0    0    0    0    0    0;
    734    0    0    0    0    1.006    100    0    32    0    0    0    0    0    0    0    0    0    0    0    0;
    736    0    0    0    0    1.049    100    0    12    0    0    0    0    0    0    0    0    0    0    0    0;
    736    1.13    0    0    0    1.049    100    1    32    0    0    0    0    0    0    0    0    0    0    0    0;
    737    0    0    0.1    -0.1    1.039    100    0    5    0    0    0    0    0    0    0    0    0    0    0    0;
    744    0    0    4.22    -3.7    1.019    100    0    6.7    0    0    0    0    0    0    0    0    0    0    0    0;
    744    0    0    4.39    -3    1.019    100    0    5.6    0    0    0    0    0    0    0    0    0    0    0    0;
    745    9.03    -1.87461217    15    -15    1.015    100    1    26.6    0    0    0    0    0    0    0    0    0    0    0    0;
    746    1.93    2    2    -2    1.023    100    1    7    1    0    0    0    0    0    0    0    0    0    0    0;
    751    0    0    3    -3    1.015    100    0    5    -5    0    0    0    0    0    0    0    0    0    0    0;
    758    0    0    8    -8    1.06    100    0    23.5    0    0    0    0    0    0    0    0    0    0    0    0;
    760    0    0    0    0    1.045    100    0    6    0    0    0    0    0    0    0    0    0    0    0    0;
    761    0    0    0    0    1.043    100    0    6    0    0    0    0    0    0    0    0    0    0    0    0;
    760    16.76    -8.42    10    -8.42    1.045    100    1    37.5    0    0    0    0    0    0    0    0    0    0    0    0;
    761    15.68    -4.45517349    10    -6    1.043    100    1    37.5    0    0    0    0    0    0    0    0    0    0    0    0;
    762    0    0    0.06    -0.06    0.596    100    0    0.6    0    0    0    0    0    0    0    0    0    0    0    0;
    762    0    0    2.61    -2.61    0.596    100    0    26.1    0    0    0    0    0    0    0    0    0    0    0    0;
    762    0    0    0.16    -0.16    0.596    100    0    1.6    0    0    0    0    0    0    0    0    0    0    0    0;
    762    0    0    0.11    -0.11    0.596    100    0    1.1    0    0    0    0    0    0    0    0    0    0    0    0;
    766    0    0    0    0    1.025    100    0    37.5    0    0    0    0    0    0    0    0    0    0    0    0;
    766    0    0    0    0    1.025    100    0    34    0    0    0    0    0    0    0    0    0    0    0    0;
    786    0    0    26    -26    1.012    100    0    8    0    0    0    0    0    0    0    0    0    0    0    0;
    786    0    0    26    -26    1.012    100    0    15    0    0    0    0    0    0    0    0    0    0    0    0;
    787    0    0    26    -26    1.022    100    0    19    0    0    0    0    0    0    0    0    0    0    0    0;
    801    23.78    -7.67600648    15    -17    1.014    100    1    31    0    0    0    0    0    0    0    0    0    0    0    0;
    801    24.76    -7.67600648    15    -17    1.014    100    1    31    0    0    0    0    0    0    0    0    0    0    0    0;
    802    25.53    -6.12415246    15    -17    1.017    100    1    31    0    0    0    0    0    0    0    0    0    0    0    0;
    802    24.52    -6.12415246    15    -17    1.017    100    1    31    0    0    0    0    0    0    0    0    0    0    0    0;
    803    24.52    -6.76660699    15    -17    1.016    100    1    31    0    0    0    0    0    0    0    0    0    0    0    0;
    803    24.52    -6.76660699    15    -17    1.016    100    1    31    0    0    0    0    0    0    0    0    0    0    0    0;
    807    31.08    0    0    0    1.023    100    1    40.8    0    0    0    0    0    0    0    0    0    0    0    0;
    815    21.82    -3.10025261    6    -9    1.019    100    1    32    1    0    0    0    0    0    0    0    0    0    0    0;
    815    0    0    6    -9    1.019    100    0    32    1    0    0    0    0    0    0    0    0    0    0    0;
    816    22.35    -1.33900803    6    -9    1.019    100    1    32    1    0    0    0    0    0    0    0    0    0    0    0;
    816    22.35    -1.33900803    6    -9    1.019    100    1    32    1    0    0    0    0    0    0    0    0    0    0    0;
    816    20.35    -1.33900803    6    -9    1.019    100    1    32    1    0    0    0    0    0    0    0    0    0    0    0;
    816    22.35    -1.33900803    6    -9    1.019    100    1    32    1    0    0    0    0    0    0    0    0    0    0    0;
    826    0    0    3    -3    1.057    100    0    13    0    0    0    0    0    0    0    0    0    0    0    0;
    826    0    0    3    -3    1.057    100    0    7    0    0    0    0    0    0    0    0    0    0    0    0;
    829    0    0    0    0    1.058    100    0    2.4    0    0    0    0    0    0    0    0    0    0    0    0;
    830    6.55    1.97950872    10    -10    1.053    100    1    27    0    0    0    0    0    0    0    0    0    0    0    0;
    831    0    0    10    -10    0.978    100    0    20    0    0    0    0    0    0    0    0    0    0    0    0;
    833    0    0    3.14    -3.43    1.079    100    0    9.8    0    0    0    0    0    0    0    0    0    0    0    0;
...
];

%% branch data
%    fbus    tbus    r    x    b    rateA    rateB    rateC    ratio    angle    status    angmin    angmax    Pf    Qf    Pt    Qt
mpc.branch = [
    4639    1    0.005726    0.010482    0    0    0    0    1    0    1    0    0    -1.0000    1.0000    1.0001    -0.9998;
    5234    1    0.01284    0.025679    0    0    0    0    1    0    1    0    0    1.0004    -0.9992    -1.0001    0.9998;
    1676    2    0.005799    0.010615    0.0075    0    0    0    1    0    1    0    0    0.0000    -0.8065    -0.0000    -0.0000;
    1667    3    0.134039    0.309398    0.0035    0    0    0    1    0    1    0    0    13.8982    0.3383    -13.6598    -0.1618;
    2296    3    0.049131    0.133283    0.0015    0    0    0    1    0    1    0    0    -0.5570    2.2879    0.5598    -2.4382;
    695    4    0.025926    0.109136    0.0002    0    0    0    1    0    1    0    0    11.5694    6.6416    -11.5274    -6.4867;
    3931    4    0.05    0.126914    0.0006    0    0    0    1    0    1    0    0    -3.4792    2.7735    3.4884    -2.8150;
    5036    4    0.02321    0.097407    0.0016    0    0    0    1    0    1    0    0    41.5329    -4.5144    -41.1610    5.9017;
    4405    5    0.040564    0.113631    0.0013    0    0    0    1    0    1    0    0    11.0473    -0.0029    -11.0000    -0.0000;
    2772    6    0.006047    0.020912    0.0222    0    0    0    1    0    1    0    0    13.0103    2.0118    -13.0000    -4.3000;
    2773    7    0.012472    0.032099    0.0061    0    0    0    1    0    1    0    0    1.2002    0.0286    -1.2000    -0.7000;
    2459    8    0.002607    0.017462    0.0324    540    540    540    1    0    1    0    0    24.6174    9.6491    -24.6000    -13.1000;
    470    9    0.053893    0.14258    0.0017    0    0    0    1    0    1    0    0    15.0095    0.1027    -14.9000    -0.0000;
    11    10    0.000247    0.001235    0.0005    0    0    0    1    0    1    0    0    0.0000    -0.0454    0.0000    -0.0080;
    11    10    0.000247    0.001235    0.0002    0    0    0    1    0    1    0    0    0.0000    -0.0294    0.0000    0.0080;
    30    11    0.039753    0.100988    0.0047    0    0    0    1    0    1    0    0    -3.4464    0.6513    3.4511    -1.1411;
    2922    11    0.037654    0.096173    0.001    0    0    0    1    0    1    0    0    34.4636    -2.2702    -34.0511    3.2159;
    2174    12    0.014613    0.060721    0.0008    0    0    0    1    0    1    0    0    7.6626    3.0483    -7.6530    -3.0913;
    4009    12    0.034064    0.121139    0.0015    0    0    0    1    0    1    0    0    7.3683    2.9863    -7.3476    -3.0684;
    4011    12    0.000242    0.000442    0.0004    0    0    0    1    0    1    0    0    -15.0000    -6.2000    15.0006    6.1598;
    115    13    2.1e-05    0.000125    0.1386    737    737    737    1    0    1    0    0    -0.0000    0.0000    0.0000    -15.5361;
    2330    13    0.000145    0.001877    0.0635    2487    2487    2487    1    0    1    0    0    -288.2005    -59.9484    288.3124    54.2879;
    4569    13    0.000319    0.003234    0.0838    1841    1841    1841    1    0    1    0    0    288.5499    16.2173    -288.3124    -23.2156;
    116    13    2.1e-05    0.000125    0.1386    737    737    737    1    0    1    0    0    -0.0000    0.0000    0.0000    -15.5361;
    1220    14    0.04    0.134198    0.0274    0    0    0    1    0    1    0    0    -50.2628    -2.5756    51.1902    2.6346;
    2867    14    0.012222    0.052346    0.0026    0    0    0    1    0    1    0    0    -40.1319    1.0952    40.3065    -0.6424;
    4587    14    0.007284    0.045432    0.0024    0    0    0    1    0    1    0    0    115.8112    -1.6606    -114.9622    6.6816;
    4945    14    0.059963    0.154222    0.0236    0    0    0    1    0    1    0    0    -35.0855    -2.1870    35.7632    1.3014;
    5220    14    0.018025    0.110988    0.0073    0    0    0    1    0    1    0    0    -11.0329    -5.5714    11.0568    4.8932;
    2867    14    0.012222    0.052593    0.0032    0    0    0    1    0    1    0    0    -39.9544    1.0143    40.1274    -0.6326;
    4587    14    0.007284    0.044938    0.0024    0    0    0    1    0    1    0    0    117.0491    -1.8780    -116.1818    6.9543;
    2899    15    0.037541    0.100529    0.0011    0    0    0    1    0    1    0    0    -33.2250    7.6669    33.6430    -6.6633;
    4116    15    0.090199    0.211388    0.0023    0    0    0    1    0    1    0    0    -0.0813    -2.3928    0.0858    2.1616;
    4447    15    0.09801    0.267574    0    0    0    0    1    0    1    0    0    34.8036    -1.5673    -33.7288    4.5017;
    249    16    0.071806    0.191484    0.0019    0    0    0    1    0    1    0    0    4.2812    -1.9318    -4.2665    1.7693;
    337    16    0.119174    0.284958    0.0044    0    0    0    1    0    1    0    0    8.3106    0.8808    -8.2335    -1.1693;
    5824    17    0.022346    0.061111    0.0029    0    0    0    1    0    1    0    0    10.9242    -0.0528    -10.9000    -0.2000;
    3719    18    0.009383    0.019753    0    0    0    0    1    0    1    0    0    0.0000    0.0000    0.0000    0.0000;
    5084    19    0.000252    0.000504    0    0    0    0    1    0    1    0    0    0.0000    0.0000    0.0000    0.0000;
    3719    20    0.001975    0.004444    0    0    0    0    1    0    1    0    0    3.9078    -18.1825    -3.9000    18.2000;
    1349    21    0.036296    0.099012    0.0045    0    0    0    1    0    1    0    0    -11.1523    -2.2620    11.1961    1.8990;
    1592    21    0.032716    0.089136    0.0057    0    0    0    1    0    1    0    0    17.5892    -0.9645    -17.4961    0.6010;
    1837    22    0.138574    0.351474    0.0058    0    0    0    1    0    1    0    0    17.9812    -0.7638    -17.5702    1.1860;
    5013    22    0.094407    0.210456    0.0044    0    0    0    1    0    1    0    0    -0.2674    1.5295    0.2702    -1.9860;
    1152    23    0.047115    0.117158    0.001    0    0    0    1    0    1    0    0    12.1759    3.6337    -12.1031    -3.5567;
    2696    23    0.039557    0.120937    0.0132    0    0    0    1    0    1    0    0    22.5137    -2.9378    -22.3190    2.1676;
    3418    23    0.022676    0.062484    0.0007    0    0    0    1    0    1    0    0    -10.0000    -0.0000    10.0221    -0.0108;
    144    24    0.064568    0.16716    0.0113    0    0    0    1    0    1    0    0    19.0641    -4.8576    -18.8391    4.2087;
    1277    24    0.048605    0.128481    0.0062    0    0    0    1    0    1    0    0    -2.1340    2.2478    2.1391    -2.9087;
    490    25    0.004815    0.02963    0.0016    0    0    0    1    0    1    0    0    24.4119    -15.2236    -24.3774    15.2510;
    2086    25    0.007309    0.04463    0.0073    0    0    0    1    0    1    0    0    25.4808    10.6947    -25.4326    -11.2510;
    612    26    0.034321    0.145802    0.0073    0    0    0    1    0    1    0    0    -40.0824    0.7359    40.6114    0.7399;
    1860    26    0.004815    0.009753    0.0005    0    0    0    1    0    1    0    0    -14.0000    2.0000    14.0090    -2.0353;
    2595    26    0.049012    0.133704    0.0063    0    0    0    1    0    1    0    0    -31.0601    10.4471    31.5566    -9.7662;
    2915    26    0.04642    0.126543    0.0058    0    0    0    1    0    1    0    0    -10.3310    2.2860    10.3803    -2.7717;
    3332    26    0.046296    0.125926    0.006    0    0    0    1    0    1    0    0    -52.8554    3.8739    54.1220    -1.0582;
    4624    26    0.053704    0.136753    0.0065    0    0    0    1    0    1    0    0    -39.3632    3.9016    40.1750    -2.5193;
    2915    26    0.03358    0.120988    0.0062    0    0    0    1    0    1    0    0    -11.2790    1.5506    11.3201    -2.0653;
    536    27    0.006163    0.041067    0.0759    446    446    446    1    0    1    0    0    118.3771    -26.0506    -117.5881    22.6993;
    2343    27    0.000652    0.004369    0.0081    558    558    558    1    0    1    0    0    117.5801    26.7319    -117.4968    -27.0967;
    2677    28    0.050945    0.131922    0.0015    0    0    0    1    0    1    0    0    10.9068    -0.6195    -10.8503    0.6050;
    3884    28    0.058781    0.149005    0.0017    0    0    0    1    0    1    0    0    -10.7854    0.3894    10.8503    -0.4050;
    2880    29    0.067019    0.137566    0.0037    0    0    0    1    0    1    0    0    30.6047    -16.9112    -29.7724    18.2555;
    3314    29    0.032754    0.088939    0.0039    0    0    0    1    0    1    0    0    21.6191    13.3094    -21.4115    -13.1381;
    3314    29    0.030184    0.080096    0.0053    0    0    0    1    0    1    0    0    24.0507    14.5065    -23.8161    -14.4174;
    144    30    0.066049    0.187778    0.0099    0    0    0    1    0    1    0    0    24.4389    -1.3297    -24.0781    1.2855;
    1548    30    0.065062    0.133704    0.0062    0    0    0    1    0    1    0    0    -3.4860    6.7345    3.5234    -7.3238;
    4831    30    0.041728    0.106049    0.005    0    0    0    1    0    1    0    0    13.6735    -2.4330    -13.5990    2.0870;
    150    31    0.009574    0.03875    0.0114    0    0    0    1    0    1    0    0    -23.7551    0.7070    23.8058    -1.7239;
    3155    31    0.000171    0.000313    0.0002    0    0    0    1    0    1    0    0    -0.2000    0.6000    0.2000    -0.6215;
    3684    31    0.034266    0.09423    0.001    0    0    0    1    0    1    0    0    -33.5104    11.5004    33.9123    -10.5024;
    4733    31    0.006803    0.028219    0    0    0    0    1    0    1    0    0    -13.8565    -4.7075    13.8701    4.7641;
    150    31    0.008566    0.037541    0.0121    0    0    0    1    0    1    0    0    -24.6450    0.2772    24.6937    -1.3607;
    3721    32    0.009733    0.034089    0.0185    0    0    0    1    0    1    0    0    39.4407    5.5433    -39.2996    -7.0789;
    366    34    0.000277    0.002015    0.003    288    288    288    1    0    1    0    0    28.4908    -75.7602    -28.4743    75.5498;
    1012    33    0.00881    0.033995    0.0607    289    289    289    1    0    1    0    0    -60.6565    15.9097    60.9773    -21.4204;
    1153    33    0.004642    0.019832    0.0354    255    255    255    1    0    1    0    0    -14.5790    -43.2641    14.6605    39.7120;
    2573    34    0.008861    0.03506    0.0623    288    288    288    1    0    1    0    0    3.8233    -27.3882    -3.7751    20.7656;
    2697    34    0.006993    0.032869    0.0557    255    255    255    1    0    1    0    0    -2.1056    -24.7474    2.1362    18.7953;
    4738    33    0.002173    0.008731    0.0152    0    0    0    1    0    1    0    0    -50.7771    -25.3322    50.8397    23.9001;
    4848    34    0.00077    0.003121    0.0051    0    0    0    1    0    1    0    0    -21.2370    19.4787    21.2429    -20.0170;
    5661    33    0.004109    0.016138    0.0284    288    288    288    1    0    1    0    0    30.9368    -26.0358    -30.8790    23.1160;
    368    35    8.3e-05    0.000907    0.0202    1034    1034    1034    1    0    1    0    0    138.0300    -89.2755    -138.0106    87.1722;
    1104    35    0.000552    0.006726    0.0939    1786    1786    1786    1    0    1    0    0    374.4248    -65.6437    -373.7299    63.3618;
    2143    35    0.000512    0.008012    0.2455    2462    2462    2462    1    0    1    0    0    306.2458    -9.7978    -305.8283    -11.8690;
    3128    35    0.001107    0.00918    0.1906    1644    1644    1644    1    0    1    0    0    -197.8361    12.7079    198.2193    -31.3891;
    367    36    6.2e-05    0.000741    0.0173    1095    1095    1095    1    0    1    0    0    135.3400    -17.1734    -135.3300    15.3015;
    2143    35    0.000512    0.008019    0.2455    2462    2462    2462    1    0    1    0    0    305.9793    -9.7845    -305.5626    -11.8879;
    2143    36    0.001153    0.013123    0.1841    1433    1433    1433    1    0    1    0    0    19.8821    -15.6983    -19.8779    -5.4396;
    5219    37    0.055933    0.120685    0.0013    0    0    0    1    0    1    0    0    -17.3934    8.5333    17.5975    -8.2268;
    5505    37    0.039053    0.084404    0.001    0    0    0    1    0    1    0    0    20.1539    -3.2925    -19.9975    3.5268;
    725    38    0.00252    0.006551    0.0001    0    0    0    1    0    1    0    0    8.0017    2.9937    -8.0000    -3.0000;
    1224    39    0.009877    0.042222    0.0021    0    0    0    1    0    1    0    0    47.0520    -3.9926    -46.8386    4.6887;
    5799    39    0.024815    0.063086    0.0029    0    0    0    1    0    1    0    0    -52.3915    5.9262    53.0773    -4.4774;
    1224    39    0.009877    0.042222    0.0021    0    0    0    1    0    1    0    0    47.0520    -3.9926    -46.8386    4.6887;
    2244    40    0.056173    0.142593    0.0066    0    0    0    1    0    1    0    0    15.2606    -6.7107    -15.1226    6.3272;
    4587    40    0.034444    0.109012    0.0076    0    0    0    1    0    1    0    0    19.7335    11.0611    -19.5774    -11.4272;
    430    41    0.000158    0.000672    0.0719    331    331    331    1    0    1    0    0    13.2003    -6.5163    -13.2001    -1.7696;
    3945    41    4.5e-05    8.9e-05    0.002    268    268    268    1    0    1    0    0    -13.2000    -2.0000    13.2001    1.7696;
    1479    42    0.01096    0.020063    0.009    0    0    0    1    0    1    0    0    0.0208    -0.3266    -0.0208    -0.8055;
    2758    42    0.002268    0.008818    0.0099    0    0    0    1    0    1    0    0    -0.0207    -2.0505    0.0208    0.8055;
    2717    43    0.001481    0.006296    0.0039    0    0    0    1    0    1    0    0    3.3002    2.2734    -3.3000    -2.7000;
    3481    44    0.050617    0.137012    0.009    0    0    0    1    0    1    0    0    29.6782    -7.2197    -29.2376    7.4586;
    4314    44    0.074326    0.194507    0.0021    0    0    0    1    0    1    0    0    -13.8423    9.3467    14.0376    -9.0586;
    5087    45    0.000247    0.000741    0    0    0    0    1    0    1    0    0    3.8000    0.8001    -3.8000    -0.8000;
    1080    46    0.049131    0.134039    0.001    0    0    0    1    0    1    0    0    19.4702    1.4149    -19.2982    -1.0535;
...